
     RDKit          2D

 43 47  0  0  0  0  0  0  0  0999 V2000
    6.1207    1.2278    0.0000 C   0  0  0  0  0  0  0  0  0  0  0  0
    5.7325   -0.2211    0.0000 C   0  0  0  0  0  0  0  0  0  0  0  0
    6.7931   -1.2818    0.0000 C   0  0  0  0  0  0  0  0  0  0  0  0
    4.2836   -0.6094    0.0000 C   0  0  0  0  0  0  0  0  0  0  0  0
    3.8954   -2.0583    0.0000 N   0  0  0  0  0  0  0  0  0  0  0  0
    2.4465   -2.4465    0.0000 C   0  0  0  0  0  0  0  0  0  0  0  0
    1.3858   -1.3858    0.0000 C   0  0  0  0  0  0  0  0  0  0  0  0
    1.9598    0.0000    0.0000 O   0  0  0  0  0  0  0  0  0  0  0  0
    1.3858    1.3858    0.0000 N   0  0  0  0  0  0  0  0  0  0  0  0
    0.0000    1.9598    0.0000 C   0  0  0  0  0  0  0  0  0  0  0  0
   -1.3858    1.3858    0.0000 C   0  0  0  0  0  0  0  0  0  0  0  0
   -2.8730    1.5816    0.0000 C   0  0  0  0  0  0  0  0  0  0  0  0
   -1.5816    2.8730    0.0000 C   0  0  0  0  0  0  0  0  0  0  0  0
   -2.9674    3.4470    0.0000 C   0  0  0  0  0  0  0  0  0  0  0  0
   -3.1632    4.9342    0.0000 C   0  0  0  0  0  0  0  0  0  0  0  0
   -4.5490    5.5082    0.0000 C   0  0  0  0  0  0  0  0  0  0  0  0
   -5.7391    4.5951    0.0000 C   0  0  0  0  0  0  0  0  0  0  0  0
   -5.5433    3.1079    0.0000 C   0  0  0  0  0  0  0  0  0  0  0  0
   -4.1575    2.5339    0.0000 C   0  0  0  0  0  0  0  0  0  0  0  0
   -1.9598    0.0000    0.0000 C   0  0  0  0  0  0  0  0  0  0  0  0
   -3.4598    0.0000    0.0000 O   0  0  0  0  0  0  0  0  0  0  0  0
   -1.3858   -1.3858    0.0000 N   0  0  0  0  0  0  0  0  0  0  0  0
   -0.0000   -1.9598    0.0000 C   0  0  0  0  0  0  0  0  0  0  0  0
   -0.0000   -3.4598    0.0000 C   0  0  0  0  0  0  0  0  0  0  0  0
   -1.2990   -4.2098    0.0000 C   0  0  0  0  0  0  0  0  0  0  0  0
   -2.5981   -3.4598    0.0000 C   0  0  0  0  0  0  0  0  0  0  0  0
   -3.8971   -4.2098    0.0000 C   0  0  0  0  0  0  0  0  0  0  0  0
   -3.8971   -5.7098    0.0000 C   0  0  0  0  0  0  0  0  0  0  0  0
   -2.5981   -6.4598    0.0000 C   0  0  0  0  0  0  0  0  0  0  0  0
   -1.2990   -5.7098    0.0000 C   0  0  0  0  0  0  0  0  0  0  0  0
    4.9560   -3.1189    0.0000 N   0  0  0  0  0  0  0  0  0  0  0  0
    4.5678   -4.5678    0.0000 C   0  0  0  0  0  0  0  0  0  0  0  0
    3.1189   -4.9560    0.0000 O   0  0  0  0  0  0  0  0  0  0  0  0
    5.6285   -5.6285    0.0000 O   0  0  0  0  0  0  0  0  0  0  0  0
    5.2402   -7.0773    0.0000 C   0  0  0  0  0  0  0  0  0  0  0  0
    3.8399   -7.6149    0.0000 C   0  0  0  0  0  0  0  0  0  0  0  0
    3.9184   -9.1128    0.0000 O   0  0  0  0  0  0  0  0  0  0  0  0
    5.3673   -9.5011    0.0000 C   0  0  0  0  0  0  0  0  0  0  0  0
    6.3112  -10.6668    0.0000 C   0  0  0  0  0  0  0  0  0  0  0  0
    5.9230  -12.1157    0.0000 O   0  0  0  0  0  0  0  0  0  0  0  0
    7.7116  -10.1292    0.0000 C   0  0  0  0  0  0  0  0  0  0  0  0
    7.6331   -8.6313    0.0000 C   0  0  0  0  0  0  0  0  0  0  0  0
    6.1842   -8.2431    0.0000 C   0  0  0  0  0  0  0  0  0  0  0  0
  1  2  1  0
  2  3  1  0
  2  4  1  0
  4  5  1  0
  5  6  1  0
  6  7  1  0
  7  8  1  0
  8  9  1  0
  9 10  2  0
 10 11  1  0
 11 12  1  0
 11 13  1  0
 13 14  1  0
 14 15  2  0
 15 16  1  0
 16 17  2  0
 17 18  1  0
 18 19  2  0
 11 20  1  0
 20 21  2  0
 20 22  1  0
 22 23  1  0
 23 24  1  0
 24 25  1  0
 25 26  2  0
 26 27  1  0
 27 28  2  0
 28 29  1  0
 29 30  2  0
  5 31  1  0
 31 32  1  0
 32 33  2  0
 32 34  1  0
 34 35  1  0
 35 36  1  0
 36 37  1  0
 37 38  1  0
 38 39  1  0
 39 40  2  0
 39 41  1  0
 41 42  1  0
 42 43  1  0
 23  7  1  0
 30 25  1  0
 43 35  1  0
 19 14  1  0
 43 38  1  0
M  END
>  <Title>  (1) 
idAAAAgen0

$$$$

     RDKit          2D

 46 49  0  0  0  0  0  0  0  0999 V2000
    0.2010   -8.5442    0.0000 C   0  0  0  0  0  0  0  0  0  0  0  0
    1.5000   -7.7942    0.0000 C   0  0  0  0  0  0  0  0  0  0  0  0
    2.7990   -7.0442    0.0000 C   0  0  0  0  0  0  0  0  0  0  0  0
    2.2500   -9.0933    0.0000 C   0  0  0  0  0  0  0  0  0  0  0  0
    0.7500   -6.4952    0.0000 N   0  0  0  0  0  0  0  0  0  0  0  0
    1.5000   -5.1962    0.0000 C   0  0  0  0  0  0  0  0  0  0  0  0
    3.0000   -5.1962    0.0000 O   0  0  0  0  0  0  0  0  0  0  0  0
    0.7500   -3.8971    0.0000 C   0  0  0  0  0  0  0  0  0  0  0  0
    1.5000   -2.5981    0.0000 C   0  0  0  0  0  0  0  0  0  0  0  0
    0.7500   -1.2990    0.0000 C   0  0  0  0  0  0  0  0  0  0  0  0
    1.5000    0.0000    0.0000 C   0  0  0  0  0  0  0  0  0  0  0  0
    0.7500    1.2990    0.0000 C   0  0  0  0  0  0  0  0  0  0  0  0
   -0.7500    1.2990    0.0000 C   0  0  0  0  0  0  0  0  0  0  0  0
   -1.5000    0.0000    0.0000 C   0  0  0  0  0  0  0  0  0  0  0  0
   -0.7500   -1.2990    0.0000 C   0  0  0  0  0  0  0  0  0  0  0  0
   -1.5000   -2.5981    0.0000 C   0  0  0  0  0  0  0  0  0  0  0  0
   -0.7500   -3.8971    0.0000 N   0  0  0  0  0  0  0  0  0  0  0  0
   -1.5000   -5.1962    0.0000 C   0  0  0  0  0  0  0  0  0  0  0  0
   -3.0000   -5.1962    0.0000 C   0  0  0  0  0  0  0  0  0  0  0  0
   -3.7500   -3.8971    0.0000 O   0  0  0  0  0  0  0  0  0  0  0  0
   -3.7500   -6.4952    0.0000 C   0  0  0  0  0  0  0  0  0  0  0  0
   -5.2500   -6.4952    0.0000 C   0  0  0  0  0  0  0  0  0  0  0  0
   -6.0000   -7.7942    0.0000 C   0  0  0  0  0  0  0  0  0  0  0  0
   -7.5000   -7.7942    0.0000 C   0  0  0  0  0  0  0  0  0  0  0  0
   -8.2500   -9.0933    0.0000 C   0  0  0  0  0  0  0  0  0  0  0  0
   -7.5000  -10.3923    0.0000 C   0  0  0  0  0  0  0  0  0  0  0  0
   -6.0000  -10.3923    0.0000 C   0  0  0  0  0  0  0  0  0  0  0  0
   -5.2500   -9.0933    0.0000 C   0  0  0  0  0  0  0  0  0  0  0  0
   -3.0000   -7.7942    0.0000 N   0  0  0  0  0  0  0  0  0  0  0  0
   -1.5000   -7.7942    0.0000 C   0  0  0  0  0  0  0  0  0  0  0  0
   -0.7500   -6.4952    0.0000 O   0  0  0  0  0  0  0  0  0  0  0  0
   -0.7500   -9.0933    0.0000 C   0  0  0  0  0  0  0  0  0  0  0  0
    0.7500   -9.0933    0.0000 C   0  0  0  0  0  0  0  0  0  0  0  0
    1.5000  -10.3923    0.0000 C   0  0  0  0  0  0  0  0  0  0  0  0
    3.0000  -10.3923    0.0000 C   0  0  0  0  0  0  0  0  0  0  0  0
    3.7500  -11.6913    0.0000 C   0  0  0  0  0  0  0  0  0  0  0  0
    3.0000  -12.9904    0.0000 C   0  0  0  0  0  0  0  0  0  0  0  0
    1.5000  -12.9904    0.0000 C   0  0  0  0  0  0  0  0  0  0  0  0
    0.7500  -11.6913    0.0000 C   0  0  0  0  0  0  0  0  0  0  0  0
   -1.5000  -10.3923    0.0000 N   0  0  0  0  0  0  0  0  0  0  0  0
   -3.0000  -10.3923    0.0000 C   0  0  0  0  0  0  0  0  0  0  0  0
   -3.7500   -9.0933    0.0000 O   0  0  0  0  0  0  0  0  0  0  0  0
   -3.7500  -11.6913    0.0000 C   0  0  0  0  0  0  0  0  0  0  0  0
   -5.0490  -10.9413    0.0000 C   0  0  0  0  0  0  0  0  0  0  0  0
   -2.4510  -12.4413    0.0000 C   0  0  0  0  0  0  0  0  0  0  0  0
   -4.5000  -12.9904    0.0000 C   0  0  0  0  0  0  0  0  0  0  0  0
  1  2  1  0
  2  3  1  0
  2  4  1  0
  2  5  1  0
  5  6  1  0
  6  7  2  0
  6  8  1  0
  8  9  1  0
  9 10  1  0
 10 11  1  0
 11 12  1  0
 12 13  1  0
 13 14  1  0
 14 15  1  0
 15 16  1  0
 16 17  1  0
 17 18  1  0
 18 19  1  0
 19 20  1  0
 19 21  1  0
 21 22  1  0
 22 23  1  0
 23 24  2  0
 24 25  1  0
 25 26  2  0
 26 27  1  0
 27 28  2  0
 21 29  1  0
 29 30  1  0
 30 31  2  0
 30 32  1  0
 32 33  1  0
 33 34  1  0
 34 35  2  0
 35 36  1  0
 36 37  2  0
 37 38  1  0
 38 39  2  0
 32 40  1  0
 40 41  1  0
 41 42  2  0
 41 43  1  0
 43 44  1  0
 43 45  1  0
 43 46  1  0
 17  8  1  0
 28 23  1  0
 39 34  1  0
 15 10  1  0
M  END
>  <Title>  (2) 
idAAABgen0

$$$$

     RDKit          2D

 38 40  0  0  0  0  0  0  0  0999 V2000
    3.0000    0.0000    0.0000 C   0  0  0  0  0  0  0  0  0  0  0  0
    1.5000    0.0000    0.0000 C   0  0  0  0  0  0  0  0  0  0  0  0
    0.7500   -1.2990    0.0000 C   0  0  0  0  0  0  0  0  0  0  0  0
   -0.7500   -1.2990    0.0000 C   0  0  0  0  0  0  0  0  0  0  0  0
   -1.5000    0.0000    0.0000 C   0  0  0  0  0  0  0  0  0  0  0  0
   -0.7500    1.2990    0.0000 C   0  0  0  0  0  0  0  0  0  0  0  0
   -1.5000    2.5981    0.0000 C   0  0  0  0  0  0  0  0  0  0  0  0
    0.7500    1.2990    0.0000 C   0  0  0  0  0  0  0  0  0  0  0  0
    1.5000    2.5981    0.0000 O   0  0  0  0  0  0  0  0  0  0  0  0
    3.0000    2.5981    0.0000 C   0  0  0  0  0  0  0  0  0  0  0  0
    3.7500    3.8971    0.0000 C   0  0  0  0  0  0  0  0  0  0  0  0
    3.0000    5.1962    0.0000 O   0  0  0  0  0  0  0  0  0  0  0  0
    5.2500    3.8971    0.0000 N   0  0  0  0  0  0  0  0  0  0  0  0
    6.0000    5.1962    0.0000 C   0  0  0  0  0  0  0  0  0  0  0  0
    7.5000    5.1962    0.0000 C   0  0  0  0  0  0  0  0  0  0  0  0
    8.2500    6.4952    0.0000 C   0  0  0  0  0  0  0  0  0  0  0  0
    9.7500    6.4952    0.0000 C   0  0  0  0  0  0  0  0  0  0  0  0
   10.5000    5.1962    0.0000 C   0  0  0  0  0  0  0  0  0  0  0  0
   12.0000    5.1962    0.0000 C   0  0  0  0  0  0  0  0  0  0  0  0
   12.7500    6.4952    0.0000 C   0  0  0  0  0  0  0  0  0  0  0  0
   14.2500    6.4952    0.0000 O   0  0  0  0  0  0  0  0  0  0  0  0
   12.0000    7.7942    0.0000 N   0  0  0  0  0  0  0  0  0  0  0  0
   10.5000    7.7942    0.0000 C   0  0  0  0  0  0  0  0  0  0  0  0
    5.2500    6.4952    0.0000 N   0  0  0  0  0  0  0  0  0  0  0  0
    6.0000    7.7942    0.0000 C   0  0  0  0  0  0  0  0  0  0  0  0
    5.2500    9.0933    0.0000 C   0  0  0  0  0  0  0  0  0  0  0  0
    3.7500    9.0933    0.0000 O   0  0  0  0  0  0  0  0  0  0  0  0
    6.0000   10.3923    0.0000 N   0  0  0  0  0  0  0  0  0  0  0  0
    5.2500   11.6913    0.0000 C   0  0  0  0  0  0  0  0  0  0  0  0
    3.7500   11.6913    0.0000 C   0  0  0  0  0  0  0  0  0  0  0  0
    3.0000   12.9904    0.0000 C   0  0  0  0  0  0  0  0  0  0  0  0
    1.5000   12.9904    0.0000 C   0  0  0  0  0  0  0  0  0  0  0  0
    0.7500   11.6913    0.0000 C   0  0  0  0  0  0  0  0  0  0  0  0
    1.5000   10.3923    0.0000 C   0  0  0  0  0  0  0  0  0  0  0  0
    3.0000   10.3923    0.0000 C   0  0  0  0  0  0  0  0  0  0  0  0
    6.0000   12.9904    0.0000 C   0  0  0  0  0  0  0  0  0  0  0  0
    5.2500   14.2894    0.0000 C   0  0  0  0  0  0  0  0  0  0  0  0
    7.5000   12.9904    0.0000 C   0  0  0  0  0  0  0  0  0  0  0  0
  1  2  1  0
  2  3  2  0
  3  4  1  0
  4  5  2  0
  5  6  1  0
  6  7  1  0
  6  8  2  0
  8  9  1  0
  9 10  1  0
 10 11  1  0
 11 12  2  0
 11 13  1  0
 13 14  1  0
 14 15  1  0
 15 16  1  0
 16 17  1  0
 17 18  2  0
 18 19  1  0
 19 20  2  0
 20 21  1  0
 20 22  1  0
 22 23  2  0
 14 24  1  0
 24 25  1  0
 25 26  1  0
 26 27  2  0
 26 28  1  0
 28 29  1  0
 29 30  1  0
 30 31  2  0
 31 32  1  0
 32 33  2  0
 33 34  1  0
 34 35  2  0
 29 36  1  0
 36 37  1  0
 36 38  1  0
  8  2  1  0
 23 17  1  0
 35 30  1  0
M  END
>  <Title>  (3) 
idAAACgen0

$$$$

     RDKit          2D

 51 54  0  0  0  0  0  0  0  0999 V2000
   12.3921   -6.7727    0.0000 C   0  0  0  0  0  0  0  0  0  0  0  0
   11.0218   -6.1626    0.0000 C   0  0  0  0  0  0  0  0  0  0  0  0
   10.8650   -4.6708    0.0000 C   0  0  0  0  0  0  0  0  0  0  0  0
    9.8083   -7.0442    0.0000 C   0  0  0  0  0  0  0  0  0  0  0  0
    8.3817   -6.5807    0.0000 N   0  0  0  0  0  0  0  0  0  0  0  0
    7.5000   -7.7942    0.0000 C   0  0  0  0  0  0  0  0  0  0  0  0
    6.0000   -7.7942    0.0000 C   0  0  0  0  0  0  0  0  0  0  0  0
    5.2500   -9.0933    0.0000 C   0  0  0  0  0  0  0  0  0  0  0  0
    4.5000  -10.3923    0.0000 N   0  0  0  0  0  0  0  0  0  0  0  0
    5.2500   -6.4952    0.0000 C   0  0  0  0  0  0  0  0  0  0  0  0
    3.7500   -6.4952    0.0000 C   0  0  0  0  0  0  0  0  0  0  0  0
    3.0000   -7.7942    0.0000 O   0  0  0  0  0  0  0  0  0  0  0  0
    3.0000   -5.1962    0.0000 N   0  0  0  0  0  0  0  0  0  0  0  0
    1.5000   -5.1962    0.0000 C   0  0  0  0  0  0  0  0  0  0  0  0
    0.7500   -3.8971    0.0000 C   0  0  0  0  0  0  0  0  0  0  0  0
    1.5000   -2.5981    0.0000 C   0  0  0  0  0  0  0  0  0  0  0  0
    0.7500   -1.2990    0.0000 C   0  0  0  0  0  0  0  0  0  0  0  0
    1.5000    0.0000    0.0000 C   0  0  0  0  0  0  0  0  0  0  0  0
    0.7500    1.2990    0.0000 C   0  0  0  0  0  0  0  0  0  0  0  0
   -0.7500    1.2990    0.0000 C   0  0  0  0  0  0  0  0  0  0  0  0
   -1.5000    0.0000    0.0000 C   0  0  0  0  0  0  0  0  0  0  0  0
   -0.7500   -1.2990    0.0000 C   0  0  0  0  0  0  0  0  0  0  0  0
    0.7500   -6.4952    0.0000 C   0  0  0  0  0  0  0  0  0  0  0  0
   -0.7500   -6.4952    0.0000 O   0  0  0  0  0  0  0  0  0  0  0  0
    1.5000   -7.7942    0.0000 C   0  0  0  0  0  0  0  0  0  0  0  0
    0.7500   -9.0933    0.0000 C   0  0  0  0  0  0  0  0  0  0  0  0
    1.5000  -10.3923    0.0000 C   0  0  0  0  0  0  0  0  0  0  0  0
    0.7500  -11.6913    0.0000 N   0  0  0  0  0  0  0  0  0  0  0  0
    1.5000  -12.9904    0.0000 C   0  0  0  0  0  0  0  0  0  0  0  0
   -0.7500  -11.6913    0.0000 C   0  0  0  0  0  0  0  0  0  0  0  0
   -0.7500   -9.0933    0.0000 C   0  0  0  0  0  0  0  0  0  0  0  0
   -1.5000  -10.3923    0.0000 C   0  0  0  0  0  0  0  0  0  0  0  0
   -3.0000  -10.3923    0.0000 C   0  0  0  0  0  0  0  0  0  0  0  0
   -3.7500   -9.0933    0.0000 C   0  0  0  0  0  0  0  0  0  0  0  0
   -5.2500   -9.0933    0.0000 C   0  0  0  0  0  0  0  0  0  0  0  0
   -6.0000  -10.3923    0.0000 C   0  0  0  0  0  0  0  0  0  0  0  0
   -5.2500  -11.6913    0.0000 C   0  0  0  0  0  0  0  0  0  0  0  0
   -3.7500  -11.6913    0.0000 C   0  0  0  0  0  0  0  0  0  0  0  0
   -1.5000   -7.7942    0.0000 N   0  0  0  0  0  0  0  0  0  0  0  0
   -3.0000   -7.7942    0.0000 C   0  0  0  0  0  0  0  0  0  0  0  0
   -3.5538   -8.3676    0.0000 O   0  0  0  0  0  0  0  0  0  0  0  0
   -3.7500   -6.4952    0.0000 O   0  0  0  0  0  0  0  0  0  0  0  0
   -5.2500   -6.4952    0.0000 C   0  0  0  0  0  0  0  0  0  0  0  0
   -6.0000   -5.1962    0.0000 C   0  0  0  0  0  0  0  0  0  0  0  0
   -5.2500   -3.8971    0.0000 C   0  0  0  0  0  0  0  0  0  0  0  0
   -6.0000   -2.5981    0.0000 C   0  0  0  0  0  0  0  0  0  0  0  0
   -7.5000   -2.5981    0.0000 C   0  0  0  0  0  0  0  0  0  0  0  0
   -8.2500   -3.8971    0.0000 C   0  0  0  0  0  0  0  0  0  0  0  0
   -7.5000   -5.1962    0.0000 C   0  0  0  0  0  0  0  0  0  0  0  0
    8.3817   -9.0078    0.0000 C   0  0  0  0  0  0  0  0  0  0  0  0
    9.8083   -8.5442    0.0000 S   0  0  0  0  0  0  0  0  0  0  0  0
  1  2  1  0
  2  3  1  0
  2  4  1  0
  4  5  2  0
  5  6  1  0
  6  7  1  0
  7  8  1  0
  8  9  3  0
  7 10  1  0
 10 11  1  0
 11 12  2  0
 11 13  1  0
 13 14  1  0
 14 15  1  0
 15 16  1  0
 16 17  1  0
 17 18  2  0
 18 19  1  0
 19 20  2  0
 20 21  1  0
 21 22  2  0
 14 23  1  0
 23 24  1  0
 23 25  1  0
 25 26  1  0
 26 27  1  0
 27 28  1  0
 28 29  1  0
 28 30  1  0
 26 31  1  0
 31 32  1  0
 32 33  1  0
 33 34  2  0
 34 35  1  0
 35 36  2  0
 36 37  1  0
 37 38  2  0
 31 39  1  0
 39 40  1  0
 40 41  2  0
 40 42  1  0
 42 43  1  0
 43 44  1  0
 44 45  2  0
 45 46  1  0
 46 47  2  0
 47 48  1  0
 48 49  2  0
  6 50  2  0
 50 51  1  0
 51  4  1  0
 22 17  1  0
 38 33  1  0
 49 44  1  0
M  END
>  <Title>  (4) 
idAAADgen0

$$$$

     RDKit          2D

 37 40  0  0  0  0  0  0  0  0999 V2000
   -6.4140   12.3558    0.0000 C   0  0  0  0  0  0  0  0  0  0  0  0
   -5.6640   11.0568    0.0000 C   0  0  0  0  0  0  0  0  0  0  0  0
   -4.1640   11.0568    0.0000 C   0  0  0  0  0  0  0  0  0  0  0  0
   -6.4140    9.7578    0.0000 C   0  0  0  0  0  0  0  0  0  0  0  0
   -5.6640    8.4587    0.0000 N   0  0  0  0  0  0  0  0  0  0  0  0
   -6.4140    7.1597    0.0000 C   0  0  0  0  0  0  0  0  0  0  0  0
   -5.6640    5.8606    0.0000 C   0  0  0  0  0  0  0  0  0  0  0  0
   -4.1640    5.8606    0.0000 O   0  0  0  0  0  0  0  0  0  0  0  0
   -6.4140    4.5616    0.0000 C   0  0  0  0  0  0  0  0  0  0  0  0
   -7.9140    4.5616    0.0000 C   0  0  0  0  0  0  0  0  0  0  0  0
   -8.6640    5.8606    0.0000 C   0  0  0  0  0  0  0  0  0  0  0  0
   -7.9140    7.1597    0.0000 C   0  0  0  0  0  0  0  0  0  0  0  0
   -8.6640    8.4587    0.0000 C   0  0  0  0  0  0  0  0  0  0  0  0
  -10.1640    8.4587    0.0000 C   0  0  0  0  0  0  0  0  0  0  0  0
  -10.9140    7.1597    0.0000 C   0  0  0  0  0  0  0  0  0  0  0  0
  -10.1640    5.8606    0.0000 C   0  0  0  0  0  0  0  0  0  0  0  0
   -5.6640    3.2626    0.0000 N   0  0  0  0  0  0  0  0  0  0  0  0
   -4.1640    3.2626    0.0000 C   0  0  0  0  0  0  0  0  0  0  0  0
   -3.4140    4.5616    0.0000 O   0  0  0  0  0  0  0  0  0  0  0  0
   -3.4140    1.9635    0.0000 O   0  0  0  0  0  0  0  0  0  0  0  0
   -1.9140    1.9635    0.0000 C   0  0  0  0  0  0  0  0  0  0  0  0
   -1.0323    3.1771    0.0000 C   0  0  0  0  0  0  0  0  0  0  0  0
    0.3943    2.7135    0.0000 O   0  0  0  0  0  0  0  0  0  0  0  0
    0.3943    1.2135    0.0000 C   0  0  0  0  0  0  0  0  0  0  0  0
    1.2760    0.0000    0.0000 O   0  0  0  0  0  0  0  0  0  0  0  0
    0.3943   -1.2135    0.0000 C   0  0  0  0  0  0  0  0  0  0  0  0
   -1.0323   -0.7500    0.0000 C   0  0  0  0  0  0  0  0  0  0  0  0
   -1.0323    0.7500    0.0000 C   0  0  0  0  0  0  0  0  0  0  0  0
   -4.1640    8.4587    0.0000 S   0  0  0  0  0  0  0  0  0  0  0  0
   -4.1640    6.9587    0.0000 O   0  0  0  0  0  0  0  0  0  0  0  0
   -4.1640    9.9587    0.0000 O   0  0  0  0  0  0  0  0  0  0  0  0
   -2.6640    8.4587    0.0000 C   0  0  0  0  0  0  0  0  0  0  0  0
   -1.9140    7.1597    0.0000 C   0  0  0  0  0  0  0  0  0  0  0  0
   -0.4140    7.1597    0.0000 C   0  0  0  0  0  0  0  0  0  0  0  0
    0.3360    8.4587    0.0000 C   0  0  0  0  0  0  0  0  0  0  0  0
   -0.4140    9.7578    0.0000 C   0  0  0  0  0  0  0  0  0  0  0  0
   -1.9140    9.7578    0.0000 C   0  0  0  0  0  0  0  0  0  0  0  0
  1  2  1  0
  2  3  1  0
  2  4  1  0
  4  5  1  0
  5  6  1  0
  6  7  1  0
  7  8  1  0
  7  9  1  0
  9 10  1  0
 10 11  1  0
 11 12  2  0
 12 13  1  0
 13 14  2  0
 14 15  1  0
 15 16  2  0
  9 17  1  0
 17 18  1  0
 18 19  2  0
 18 20  1  0
 20 21  1  0
 21 22  1  0
 22 23  1  0
 23 24  1  0
 24 25  1  0
 25 26  1  0
 26 27  1  0
 27 28  1  0
  5 29  1  0
 29 30  2  0
 29 31  2  0
 29 32  1  0
 32 33  2  0
 33 34  1  0
 34 35  2  0
 35 36  1  0
 36 37  2  0
 16 11  1  0
 28 21  1  0
 37 32  1  0
 28 24  1  0
M  END
>  <Title>  (5) 
idAAAEgen0

$$$$

     RDKit          2D

 47 49  0  0  0  0  0  0  0  0999 V2000
    7.5000   -0.0000    0.0000 C   0  0  0  0  0  0  0  0  0  0  0  0
    6.0000   -0.0000    0.0000 O   0  0  0  0  0  0  0  0  0  0  0  0
    5.2500   -1.2990    0.0000 C   0  0  0  0  0  0  0  0  0  0  0  0
    6.0000   -2.5981    0.0000 O   0  0  0  0  0  0  0  0  0  0  0  0
    3.7500   -1.2990    0.0000 N   0  0  0  0  0  0  0  0  0  0  0  0
    3.0000   -2.5981    0.0000 C   0  0  0  0  0  0  0  0  0  0  0  0
    1.5000   -2.5981    0.0000 C   0  0  0  0  0  0  0  0  0  0  0  0
    0.7500   -1.2990    0.0000 N   0  0  0  0  0  0  0  0  0  0  0  0
    1.5000    0.0000    0.0000 C   0  0  0  0  0  0  0  0  0  0  0  0
    0.7500    1.2990    0.0000 C   0  0  0  0  0  0  0  0  0  0  0  0
   -0.7500    1.2990    0.0000 C   0  0  0  0  0  0  0  0  0  0  0  0
   -1.5000    0.0000    0.0000 C   0  0  0  0  0  0  0  0  0  0  0  0
   -0.7500   -1.2990    0.0000 C   0  0  0  0  0  0  0  0  0  0  0  0
   -1.5000   -2.5981    0.0000 C   0  0  0  0  0  0  0  0  0  0  0  0
   -0.7500   -3.8971    0.0000 O   0  0  0  0  0  0  0  0  0  0  0  0
   -3.0000   -2.5981    0.0000 N   0  0  0  0  0  0  0  0  0  0  0  0
   -3.7500   -3.8971    0.0000 C   0  0  0  0  0  0  0  0  0  0  0  0
   -3.0000   -5.1962    0.0000 C   0  0  0  0  0  0  0  0  0  0  0  0
   -1.5000   -5.1962    0.0000 O   0  0  0  0  0  0  0  0  0  0  0  0
   -3.7500   -6.4952    0.0000 O   0  0  0  0  0  0  0  0  0  0  0  0
   -3.0000   -7.7942    0.0000 C   0  0  0  0  0  0  0  0  0  0  0  0
   -3.7500   -9.0933    0.0000 C   0  0  0  0  0  0  0  0  0  0  0  0
   -5.2500   -9.0933    0.0000 C   0  0  0  0  0  0  0  0  0  0  0  0
   -6.0000  -10.3923    0.0000 C   0  0  0  0  0  0  0  0  0  0  0  0
   -5.2500  -11.6913    0.0000 C   0  0  0  0  0  0  0  0  0  0  0  0
   -3.7500  -11.6913    0.0000 C   0  0  0  0  0  0  0  0  0  0  0  0
   -3.0000  -10.3923    0.0000 C   0  0  0  0  0  0  0  0  0  0  0  0
   -5.2500   -3.8971    0.0000 C   0  0  0  0  0  0  0  0  0  0  0  0
   -6.0000   -5.1962    0.0000 C   0  0  0  0  0  0  0  0  0  0  0  0
   -6.0000   -2.5981    0.0000 C   0  0  0  0  0  0  0  0  0  0  0  0
    3.7500   -3.8971    0.0000 C   0  0  0  0  0  0  0  0  0  0  0  0
    5.2500   -3.8971    0.0000 C   0  0  0  0  0  0  0  0  0  0  0  0
    6.0000   -5.1962    0.0000 C   0  0  0  0  0  0  0  0  0  0  0  0
    5.2500   -6.4952    0.0000 C   0  0  0  0  0  0  0  0  0  0  0  0
    6.0000   -7.7942    0.0000 C   0  0  0  0  0  0  0  0  0  0  0  0
    7.5000   -7.7942    0.0000 C   0  0  0  0  0  0  0  0  0  0  0  0
    8.2500   -6.4952    0.0000 C   0  0  0  0  0  0  0  0  0  0  0  0
    7.5000   -5.1962    0.0000 C   0  0  0  0  0  0  0  0  0  0  0  0
    3.0000   -5.1962    0.0000 N   0  0  0  0  0  0  0  0  0  0  0  0
    1.5000   -5.1962    0.0000 C   0  0  0  0  0  0  0  0  0  0  0  0
    0.7500   -3.8971    0.0000 O   0  0  0  0  0  0  0  0  0  0  0  0
    0.7500   -6.4952    0.0000 C   0  0  0  0  0  0  0  0  0  0  0  0
   -0.7500   -6.4952    0.0000 O   0  0  0  0  0  0  0  0  0  0  0  0
    1.5000   -7.7942    0.0000 C   0  0  0  0  0  0  0  0  0  0  0  0
    0.2010   -8.5442    0.0000 C   0  0  0  0  0  0  0  0  0  0  0  0
    2.7990   -7.0442    0.0000 C   0  0  0  0  0  0  0  0  0  0  0  0
    2.2500   -9.0933    0.0000 C   0  0  0  0  0  0  0  0  0  0  0  0
  1  2  1  0
  2  3  1  0
  3  4  2  0
  3  5  1  0
  5  6  1  0
  6  7  1  0
  7  8  1  0
  8  9  1  0
  9 10  1  0
 10 11  1  0
 11 12  1  0
 12 13  1  0
 13 14  1  0
 14 15  2  0
 14 16  1  0
 16 17  1  0
 17 18  1  0
 18 19  2  0
 18 20  1  0
 20 21  1  0
 21 22  1  0
 22 23  2  0
 23 24  1  0
 24 25  2  0
 25 26  1  0
 26 27  2  0
 17 28  1  0
 28 29  1  0
 28 30  1  0
  6 31  1  0
 31 32  1  0
 32 33  1  0
 33 34  2  0
 34 35  1  0
 35 36  2  0
 36 37  1  0
 37 38  2  0
 31 39  1  0
 39 40  1  0
 40 41  2  0
 40 42  1  0
 42 43  1  0
 42 44  1  0
 44 45  1  0
 44 46  1  0
 44 47  1  0
 13  8  1  0
 27 22  1  0
 38 33  1  0
M  END
>  <Title>  (6) 
idAAAFgen0

$$$$

     RDKit          2D

 42 45  0  0  0  0  0  0  0  0999 V2000
   13.3753   -0.3600    0.0000 C   0  0  0  0  0  0  0  0  0  0  0  0
   11.8835   -0.5168    0.0000 C   0  0  0  0  0  0  0  0  0  0  0  0
   11.2734   -1.8871    0.0000 C   0  0  0  0  0  0  0  0  0  0  0  0
   12.1551   -3.1006    0.0000 C   0  0  0  0  0  0  0  0  0  0  0  0
   13.6469   -2.9438    0.0000 C   0  0  0  0  0  0  0  0  0  0  0  0
    9.7816   -2.0439    0.0000 C   0  0  0  0  0  0  0  0  0  0  0  0
    9.1715   -3.4142    0.0000 O   0  0  0  0  0  0  0  0  0  0  0  0
    7.6797   -3.5710    0.0000 C   0  0  0  0  0  0  0  0  0  0  0  0
    6.7980   -2.3575    0.0000 O   0  0  0  0  0  0  0  0  0  0  0  0
    7.0696   -4.9413    0.0000 C   0  0  0  0  0  0  0  0  0  0  0  0
    5.5778   -5.0981    0.0000 C   0  0  0  0  0  0  0  0  0  0  0  0
    7.9513   -6.1548    0.0000 N   0  0  0  0  0  0  0  0  0  0  0  0
    7.3412   -7.5252    0.0000 P   0  0  0  0  0  0  0  0  0  0  0  0
    6.7311   -8.8955    0.0000 O   0  0  0  0  0  0  0  0  0  0  0  0
    5.9709   -6.9151    0.0000 O   0  0  0  0  0  0  0  0  0  0  0  0
    4.7573   -7.7967    0.0000 C   0  0  0  0  0  0  0  0  0  0  0  0
    3.3870   -7.1866    0.0000 C   0  0  0  0  0  0  0  0  0  0  0  0
    3.0752   -5.7194    0.0000 C   0  0  0  0  0  0  0  0  0  0  0  0
    1.5834   -5.5626    0.0000 C   0  0  0  0  0  0  0  0  0  0  0  0
    0.9733   -6.9329    0.0000 C   0  0  0  0  0  0  0  0  0  0  0  0
    2.0880   -7.9366    0.0000 O   0  0  0  0  0  0  0  0  0  0  0  0
    0.0916   -8.1465    0.0000 C   0  0  0  0  0  0  0  0  0  0  0  0
   -0.7901   -9.3600    0.0000 N   0  0  0  0  0  0  0  0  0  0  0  0
   -0.3258   -6.1829    0.0000 C   0  0  0  0  0  0  0  0  0  0  0  0
   -0.4826   -4.6911    0.0000 C   0  0  0  0  0  0  0  0  0  0  0  0
   -1.9498   -4.3793    0.0000 C   0  0  0  0  0  0  0  0  0  0  0  0
   -2.6998   -5.6783    0.0000 C   0  0  0  0  0  0  0  0  0  0  0  0
   -1.6961   -6.7930    0.0000 N   0  0  0  0  0  0  0  0  0  0  0  0
   -2.1596   -8.2196    0.0000 N   0  0  0  0  0  0  0  0  0  0  0  0
   -3.6268   -8.5315    0.0000 C   0  0  0  0  0  0  0  0  0  0  0  0
   -4.6305   -7.4168    0.0000 N   0  0  0  0  0  0  0  0  0  0  0  0
   -4.1670   -5.9902    0.0000 C   0  0  0  0  0  0  0  0  0  0  0  0
   -5.1707   -4.8755    0.0000 N   0  0  0  0  0  0  0  0  0  0  0  0
    0.8334   -4.2636    0.0000 O   0  0  0  0  0  0  0  0  0  0  0  0
    4.0789   -4.6047    0.0000 O   0  0  0  0  0  0  0  0  0  0  0  0
    8.7115   -8.1353    0.0000 O   0  0  0  0  0  0  0  0  0  0  0  0
    8.8683   -9.6270    0.0000 C   0  0  0  0  0  0  0  0  0  0  0  0
    7.6548  -10.5087    0.0000 C   0  0  0  0  0  0  0  0  0  0  0  0
    7.8116  -12.0005    0.0000 C   0  0  0  0  0  0  0  0  0  0  0  0
    9.1819  -12.6106    0.0000 C   0  0  0  0  0  0  0  0  0  0  0  0
   10.3954  -11.7289    0.0000 C   0  0  0  0  0  0  0  0  0  0  0  0
   10.2386  -10.2371    0.0000 C   0  0  0  0  0  0  0  0  0  0  0  0
  1  2  1  0
  2  3  1  0
  3  4  1  0
  4  5  1  0
  3  6  1  0
  6  7  1  0
  7  8  1  0
  8  9  2  0
  8 10  1  0
 10 11  1  0
 10 12  1  0
 12 13  1  0
 13 14  2  0
 13 15  1  0
 15 16  1  0
 16 17  1  0
 17 18  1  0
 18 19  1  0
 19 20  1  0
 20 21  1  0
 20 22  1  0
 22 23  3  0
 20 24  1  0
 24 25  2  0
 25 26  1  0
 26 27  2  0
 27 28  1  0
 28 29  1  0
 29 30  2  0
 30 31  1  0
 31 32  2  0
 32 33  1  0
 19 34  1  0
 18 35  1  0
 13 36  1  0
 36 37  1  0
 37 38  2  0
 38 39  1  0
 39 40  2  0
 40 41  1  0
 41 42  2  0
 21 17  1  0
 28 24  1  0
 32 27  1  0
 42 37  1  0
M  END
>  <Title>  (7) 
idAAAGgen0

$$$$

     RDKit          2D

 40 43  0  0  0  0  0  0  0  0999 V2000
    0.7500   -9.0933    0.0000 C   0  0  0  0  0  0  0  0  0  0  0  0
    1.5000  -10.3923    0.0000 C   0  0  0  0  0  0  0  0  0  0  0  0
    3.0000  -10.3923    0.0000 C   0  0  0  0  0  0  0  0  0  0  0  0
    3.7500  -11.6913    0.0000 C   0  0  0  0  0  0  0  0  0  0  0  0
    3.0000  -12.9904    0.0000 C   0  0  0  0  0  0  0  0  0  0  0  0
    1.5000  -12.9904    0.0000 C   0  0  0  0  0  0  0  0  0  0  0  0
    0.7500  -11.6913    0.0000 C   0  0  0  0  0  0  0  0  0  0  0  0
   -0.7500  -11.6913    0.0000 O   0  0  0  0  0  0  0  0  0  0  0  0
    3.7500   -9.0933    0.0000 C   0  0  0  0  0  0  0  0  0  0  0  0
    5.2500   -9.0933    0.0000 O   0  0  0  0  0  0  0  0  0  0  0  0
    3.0000   -7.7942    0.0000 N   0  0  0  0  0  0  0  0  0  0  0  0
    3.7500   -6.4952    0.0000 C   0  0  0  0  0  0  0  0  0  0  0  0
    5.2500   -6.4952    0.0000 C   0  0  0  0  0  0  0  0  0  0  0  0
    6.0000   -7.7942    0.0000 S   0  0  0  0  0  0  0  0  0  0  0  0
    7.5000   -7.7942    0.0000 C   0  0  0  0  0  0  0  0  0  0  0  0
    8.2500   -9.0933    0.0000 C   0  0  0  0  0  0  0  0  0  0  0  0
    9.7500   -9.0933    0.0000 C   0  0  0  0  0  0  0  0  0  0  0  0
   10.5000   -7.7942    0.0000 C   0  0  0  0  0  0  0  0  0  0  0  0
    9.7500   -6.4952    0.0000 C   0  0  0  0  0  0  0  0  0  0  0  0
    8.2500   -6.4952    0.0000 C   0  0  0  0  0  0  0  0  0  0  0  0
    3.0000   -5.1962    0.0000 C   0  0  0  0  0  0  0  0  0  0  0  0
    1.5000   -5.1962    0.0000 C   0  0  0  0  0  0  0  0  0  0  0  0
    0.7500   -3.8971    0.0000 N   0  0  0  0  0  0  0  0  0  0  0  0
    1.5000   -2.5981    0.0000 C   0  0  0  0  0  0  0  0  0  0  0  0
    0.7500   -1.2990    0.0000 C   0  0  0  0  0  0  0  0  0  0  0  0
    1.5000    0.0000    0.0000 C   0  0  0  0  0  0  0  0  0  0  0  0
    0.7500    1.2990    0.0000 C   0  0  0  0  0  0  0  0  0  0  0  0
   -0.7500    1.2990    0.0000 C   0  0  0  0  0  0  0  0  0  0  0  0
   -1.5000    0.0000    0.0000 C   0  0  0  0  0  0  0  0  0  0  0  0
   -0.7500   -1.2990    0.0000 C   0  0  0  0  0  0  0  0  0  0  0  0
   -1.5000   -2.5981    0.0000 C   0  0  0  0  0  0  0  0  0  0  0  0
   -0.7500   -3.8971    0.0000 C   0  0  0  0  0  0  0  0  0  0  0  0
   -1.5000   -5.1962    0.0000 C   0  0  0  0  0  0  0  0  0  0  0  0
   -0.7500   -6.4952    0.0000 O   0  0  0  0  0  0  0  0  0  0  0  0
   -3.0000   -5.1962    0.0000 N   0  0  0  0  0  0  0  0  0  0  0  0
   -3.7500   -6.4952    0.0000 C   0  0  0  0  0  0  0  0  0  0  0  0
   -5.0490   -5.7452    0.0000 C   0  0  0  0  0  0  0  0  0  0  0  0
   -2.4510   -7.2452    0.0000 C   0  0  0  0  0  0  0  0  0  0  0  0
   -4.5000   -7.7942    0.0000 C   0  0  0  0  0  0  0  0  0  0  0  0
    3.7500   -3.8971    0.0000 O   0  0  0  0  0  0  0  0  0  0  0  0
  1  2  1  0
  2  3  2  0
  3  4  1  0
  4  5  2  0
  5  6  1  0
  6  7  2  0
  7  8  1  0
  3  9  1  0
  9 10  2  0
  9 11  1  0
 11 12  1  0
 12 13  1  0
 13 14  1  0
 14 15  1  0
 15 16  2  0
 16 17  1  0
 17 18  2  0
 18 19  1  0
 19 20  2  0
 12 21  1  0
 21 22  1  0
 22 23  1  0
 23 24  1  0
 24 25  1  0
 25 26  1  0
 26 27  1  0
 27 28  1  0
 28 29  1  0
 29 30  1  0
 30 31  1  0
 31 32  1  0
 32 33  1  0
 33 34  2  0
 33 35  1  0
 35 36  1  0
 36 37  1  0
 36 38  1  0
 36 39  1  0
 21 40  1  0
  7  2  1  0
 20 15  1  0
 32 23  1  0
 30 25  1  0
M  END
>  <Title>  (8) 
idAAAHgen0

$$$$

     RDKit          2D

 46 49  0  0  0  0  0  0  0  0999 V2000
    3.0000    0.0000    0.0000 C   0  0  0  0  0  0  0  0  0  0  0  0
    1.5000    0.0000    0.0000 C   0  0  0  0  0  0  0  0  0  0  0  0
    0.7500   -1.2990    0.0000 C   0  0  0  0  0  0  0  0  0  0  0  0
   -0.7500   -1.2990    0.0000 C   0  0  0  0  0  0  0  0  0  0  0  0
   -1.5000    0.0000    0.0000 C   0  0  0  0  0  0  0  0  0  0  0  0
   -0.7500    1.2990    0.0000 C   0  0  0  0  0  0  0  0  0  0  0  0
    0.7500    1.2990    0.0000 C   0  0  0  0  0  0  0  0  0  0  0  0
   -1.5000   -2.5981    0.0000 C   0  0  0  0  0  0  0  0  0  0  0  0
    1.5000   -2.5981    0.0000 O   0  0  0  0  0  0  0  0  0  0  0  0
    0.7500   -3.8971    0.0000 C   0  0  0  0  0  0  0  0  0  0  0  0
    1.5000   -5.1962    0.0000 C   0  0  0  0  0  0  0  0  0  0  0  0
    3.0000   -5.1962    0.0000 O   0  0  0  0  0  0  0  0  0  0  0  0
    0.7500   -6.4952    0.0000 N   0  0  0  0  0  0  0  0  0  0  0  0
    1.5000   -7.7942    0.0000 C   0  0  0  0  0  0  0  0  0  0  0  0
    0.7500   -9.0933    0.0000 C   0  0  0  0  0  0  0  0  0  0  0  0
    1.5000  -10.3923    0.0000 C   0  0  0  0  0  0  0  0  0  0  0  0
    0.7500  -11.6913    0.0000 C   0  0  0  0  0  0  0  0  0  0  0  0
    1.5000  -12.9904    0.0000 C   0  0  0  0  0  0  0  0  0  0  0  0
    3.0000  -12.9904    0.0000 C   0  0  0  0  0  0  0  0  0  0  0  0
    3.7500  -11.6913    0.0000 C   0  0  0  0  0  0  0  0  0  0  0  0
    3.0000  -10.3923    0.0000 C   0  0  0  0  0  0  0  0  0  0  0  0
    3.0000   -7.7942    0.0000 C   0  0  0  0  0  0  0  0  0  0  0  0
    3.7500   -9.0933    0.0000 C   0  0  0  0  0  0  0  0  0  0  0  0
    5.2500   -9.0933    0.0000 C   0  0  0  0  0  0  0  0  0  0  0  0
    6.0000  -10.3923    0.0000 C   0  0  0  0  0  0  0  0  0  0  0  0
    7.5000  -10.3923    0.0000 C   0  0  0  0  0  0  0  0  0  0  0  0
    8.2500  -11.6913    0.0000 C   0  0  0  0  0  0  0  0  0  0  0  0
    9.7500  -11.6913    0.0000 C   0  0  0  0  0  0  0  0  0  0  0  0
   10.5000  -10.3923    0.0000 C   0  0  0  0  0  0  0  0  0  0  0  0
    9.7500   -9.0933    0.0000 C   0  0  0  0  0  0  0  0  0  0  0  0
    8.2500   -9.0933    0.0000 C   0  0  0  0  0  0  0  0  0  0  0  0
    6.0000   -7.7942    0.0000 N   0  0  0  0  0  0  0  0  0  0  0  0
    7.5000   -7.7942    0.0000 C   0  0  0  0  0  0  0  0  0  0  0  0
    8.0538   -8.3676    0.0000 O   0  0  0  0  0  0  0  0  0  0  0  0
    8.2500   -6.4952    0.0000 C   0  0  0  0  0  0  0  0  0  0  0  0
    9.7500   -6.4952    0.0000 C   0  0  0  0  0  0  0  0  0  0  0  0
   10.5000   -5.1962    0.0000 C   0  0  0  0  0  0  0  0  0  0  0  0
   10.5000   -7.7942    0.0000 C   0  0  0  0  0  0  0  0  0  0  0  0
    7.5000   -5.1962    0.0000 N   0  0  0  0  0  0  0  0  0  0  0  0
    8.2500   -3.8971    0.0000 C   0  0  0  0  0  0  0  0  0  0  0  0
    7.5000   -2.5981    0.0000 C   0  0  0  0  0  0  0  0  0  0  0  0
    6.0000   -2.5981    0.0000 C   0  0  0  0  0  0  0  0  0  0  0  0
    5.2500   -3.8971    0.0000 N   0  0  0  0  0  0  0  0  0  0  0  0
    6.0000   -5.1962    0.0000 C   0  0  0  0  0  0  0  0  0  0  0  0
    5.2500   -6.4952    0.0000 O   0  0  0  0  0  0  0  0  0  0  0  0
    3.7500   -6.4952    0.0000 O   0  0  0  0  0  0  0  0  0  0  0  0
  1  2  1  0
  2  3  2  0
  3  4  1  0
  4  5  2  0
  5  6  1  0
  6  7  2  0
  4  8  1  0
  3  9  1  0
  9 10  1  0
 10 11  1  0
 11 12  2  0
 11 13  1  0
 13 14  1  0
 14 15  1  0
 15 16  1  0
 16 17  2  0
 17 18  1  0
 18 19  2  0
 19 20  1  0
 20 21  2  0
 14 22  1  0
 22 23  1  0
 23 24  1  0
 24 25  1  0
 25 26  1  0
 26 27  2  0
 27 28  1  0
 28 29  2  0
 29 30  1  0
 30 31  2  0
 24 32  1  0
 32 33  1  0
 33 34  2  0
 33 35  1  0
 35 36  1  0
 36 37  1  0
 36 38  1  0
 35 39  1  0
 39 40  1  0
 40 41  1  0
 41 42  1  0
 42 43  1  0
 43 44  1  0
 44 45  2  0
 22 46  1  0
  7  2  1  0
 21 16  1  0
 31 26  1  0
 44 39  1  0
M  END
>  <Title>  (9) 
idAAAIgen0

$$$$

     RDKit          2D

 50 53  0  0  0  0  0  0  0  0999 V2000
   -9.3308    3.7259    0.0000 C   0  0  0  0  0  0  0  0  0  0  0  0
   -9.1740    2.2341    0.0000 C   0  0  0  0  0  0  0  0  0  0  0  0
  -10.3875    1.3524    0.0000 C   0  0  0  0  0  0  0  0  0  0  0  0
   -7.8037    1.6240    0.0000 C   0  0  0  0  0  0  0  0  0  0  0  0
   -7.4918    0.1568    0.0000 N   0  0  0  0  0  0  0  0  0  0  0  0
   -6.0000    0.0000    0.0000 C   0  0  0  0  0  0  0  0  0  0  0  0
   -5.3899    1.3703    0.0000 C   0  0  0  0  0  0  0  0  0  0  0  0
   -6.5046    2.3740    0.0000 S   0  0  0  0  0  0  0  0  0  0  0  0
   -5.2500   -1.2990    0.0000 C   0  0  0  0  0  0  0  0  0  0  0  0
   -6.0000   -2.5981    0.0000 N   0  0  0  0  0  0  0  0  0  0  0  0
   -7.5000   -2.5981    0.0000 C   0  0  0  0  0  0  0  0  0  0  0  0
   -5.2500   -3.8971    0.0000 C   0  0  0  0  0  0  0  0  0  0  0  0
   -6.0000   -5.1962    0.0000 O   0  0  0  0  0  0  0  0  0  0  0  0
   -3.7500   -3.8971    0.0000 N   0  0  0  0  0  0  0  0  0  0  0  0
   -3.0000   -5.1962    0.0000 C   0  0  0  0  0  0  0  0  0  0  0  0
   -3.7500   -6.4952    0.0000 C   0  0  0  0  0  0  0  0  0  0  0  0
   -5.2500   -6.4952    0.0000 C   0  0  0  0  0  0  0  0  0  0  0  0
   -3.0000   -7.7942    0.0000 C   0  0  0  0  0  0  0  0  0  0  0  0
   -1.5000   -5.1962    0.0000 C   0  0  0  0  0  0  0  0  0  0  0  0
   -0.7500   -6.4952    0.0000 O   0  0  0  0  0  0  0  0  0  0  0  0
   -0.7500   -3.8971    0.0000 N   0  0  0  0  0  0  0  0  0  0  0  0
    0.7500   -3.8971    0.0000 C   0  0  0  0  0  0  0  0  0  0  0  0
    1.5000   -2.5981    0.0000 C   0  0  0  0  0  0  0  0  0  0  0  0
    0.7500   -1.2990    0.0000 C   0  0  0  0  0  0  0  0  0  0  0  0
    1.5000    0.0000    0.0000 C   0  0  0  0  0  0  0  0  0  0  0  0
    0.7500    1.2990    0.0000 C   0  0  0  0  0  0  0  0  0  0  0  0
   -0.7500    1.2990    0.0000 C   0  0  0  0  0  0  0  0  0  0  0  0
   -1.5000    0.0000    0.0000 C   0  0  0  0  0  0  0  0  0  0  0  0
   -0.7500   -1.2990    0.0000 C   0  0  0  0  0  0  0  0  0  0  0  0
    1.5000   -5.1962    0.0000 C   0  0  0  0  0  0  0  0  0  0  0  0
    3.0000   -5.1962    0.0000 C   0  0  0  0  0  0  0  0  0  0  0  0
    3.7500   -6.4952    0.0000 C   0  0  0  0  0  0  0  0  0  0  0  0
    5.2500   -6.4952    0.0000 C   0  0  0  0  0  0  0  0  0  0  0  0
    6.0000   -7.7942    0.0000 C   0  0  0  0  0  0  0  0  0  0  0  0
    7.5000   -7.7942    0.0000 C   0  0  0  0  0  0  0  0  0  0  0  0
    8.2500   -9.0933    0.0000 C   0  0  0  0  0  0  0  0  0  0  0  0
    7.5000  -10.3923    0.0000 C   0  0  0  0  0  0  0  0  0  0  0  0
    6.0000  -10.3923    0.0000 C   0  0  0  0  0  0  0  0  0  0  0  0
    5.2500   -9.0933    0.0000 C   0  0  0  0  0  0  0  0  0  0  0  0
    3.0000   -7.7942    0.0000 N   0  0  0  0  0  0  0  0  0  0  0  0
    1.5000   -7.7942    0.0000 C   0  0  0  0  0  0  0  0  0  0  0  0
    0.7500   -6.4952    0.0000 O   0  0  0  0  0  0  0  0  0  0  0  0
    0.7500   -9.0933    0.0000 O   0  0  0  0  0  0  0  0  0  0  0  0
   -0.7500   -9.0933    0.0000 C   0  0  0  0  0  0  0  0  0  0  0  0
   -1.5000  -10.3923    0.0000 C   0  0  0  0  0  0  0  0  0  0  0  0
   -0.8899  -11.7626    0.0000 C   0  0  0  0  0  0  0  0  0  0  0  0
   -2.0046  -12.7663    0.0000 N   0  0  0  0  0  0  0  0  0  0  0  0
   -3.3037  -12.0163    0.0000 C   0  0  0  0  0  0  0  0  0  0  0  0
   -2.9918  -10.5491    0.0000 S   0  0  0  0  0  0  0  0  0  0  0  0
    3.7500   -3.8971    0.0000 O   0  0  0  0  0  0  0  0  0  0  0  0
  1  2  1  0
  2  3  1  0
  2  4  1  0
  4  5  2  0
  5  6  1  0
  6  7  2  0
  7  8  1  0
  6  9  1  0
  9 10  1  0
 10 11  1  0
 10 12  1  0
 12 13  2  0
 12 14  1  0
 14 15  1  0
 15 16  1  0
 16 17  1  0
 16 18  1  0
 15 19  1  0
 19 20  2  0
 19 21  1  0
 21 22  1  0
 22 23  1  0
 23 24  1  0
 24 25  2  0
 25 26  1  0
 26 27  2  0
 27 28  1  0
 28 29  2  0
 22 30  1  0
 30 31  1  0
 31 32  1  0
 32 33  1  0
 33 34  1  0
 34 35  2  0
 35 36  1  0
 36 37  2  0
 37 38  1  0
 38 39  2  0
 32 40  1  0
 40 41  1  0
 41 42  2  0
 41 43  1  0
 43 44  1  0
 44 45  1  0
 45 46  2  0
 46 47  1  0
 47 48  2  0
 48 49  1  0
 31 50  1  0
  8  4  1  0
 29 24  1  0
 39 34  1  0
 49 45  1  0
M  END
>  <Title>  (10) 
idAAAJgen0

$$$$

     RDKit          2D

 38 41  0  0  0  0  0  0  0  0999 V2000
   10.1433   -3.0490    0.0000 C   0  0  0  0  0  0  0  0  0  0  0  0
    8.7730   -2.4389    0.0000 C   0  0  0  0  0  0  0  0  0  0  0  0
    7.5595   -3.3206    0.0000 C   0  0  0  0  0  0  0  0  0  0  0  0
    8.6162   -0.9471    0.0000 C   0  0  0  0  0  0  0  0  0  0  0  0
    7.2459   -0.3370    0.0000 N   0  0  0  0  0  0  0  0  0  0  0  0
    7.0891    1.1548    0.0000 C   0  0  0  0  0  0  0  0  0  0  0  0
    5.7188    1.7649    0.0000 C   0  0  0  0  0  0  0  0  0  0  0  0
    5.5620    3.2567    0.0000 C   0  0  0  0  0  0  0  0  0  0  0  0
    6.7755    4.1383    0.0000 C   0  0  0  0  0  0  0  0  0  0  0  0
    8.1458    3.5282    0.0000 C   0  0  0  0  0  0  0  0  0  0  0  0
    8.3026    2.0365    0.0000 C   0  0  0  0  0  0  0  0  0  0  0  0
    9.6729    1.4264    0.0000 C   0  0  0  0  0  0  0  0  0  0  0  0
   10.8865    2.3080    0.0000 C   0  0  0  0  0  0  0  0  0  0  0  0
   10.7297    3.7998    0.0000 C   0  0  0  0  0  0  0  0  0  0  0  0
    9.3594    4.4099    0.0000 C   0  0  0  0  0  0  0  0  0  0  0  0
    4.1917    3.8668    0.0000 N   0  0  0  0  0  0  0  0  0  0  0  0
    2.9781    2.9851    0.0000 C   0  0  0  0  0  0  0  0  0  0  0  0
    3.1349    1.4933    0.0000 O   0  0  0  0  0  0  0  0  0  0  0  0
    1.6078    3.5952    0.0000 O   0  0  0  0  0  0  0  0  0  0  0  0
    0.3943    2.7135    0.0000 C   0  0  0  0  0  0  0  0  0  0  0  0
   -1.0323    3.1771    0.0000 C   0  0  0  0  0  0  0  0  0  0  0  0
   -1.9140    1.9635    0.0000 O   0  0  0  0  0  0  0  0  0  0  0  0
   -1.0323    0.7500    0.0000 C   0  0  0  0  0  0  0  0  0  0  0  0
    0.3943    1.2135    0.0000 C   0  0  0  0  0  0  0  0  0  0  0  0
    1.2760    0.0000    0.0000 C   0  0  0  0  0  0  0  0  0  0  0  0
    0.3943   -1.2135    0.0000 C   0  0  0  0  0  0  0  0  0  0  0  0
   -1.0323   -0.7500    0.0000 O   0  0  0  0  0  0  0  0  0  0  0  0
    4.5053    0.8832    0.0000 O   0  0  0  0  0  0  0  0  0  0  0  0
    6.0324   -1.2187    0.0000 S   0  0  0  0  0  0  0  0  0  0  0  0
    5.1507   -0.0052    0.0000 O   0  0  0  0  0  0  0  0  0  0  0  0
    6.9140   -2.4322    0.0000 O   0  0  0  0  0  0  0  0  0  0  0  0
    4.8188   -2.1004    0.0000 C   0  0  0  0  0  0  0  0  0  0  0  0
    3.4485   -1.4903    0.0000 C   0  0  0  0  0  0  0  0  0  0  0  0
    2.2350   -2.3719    0.0000 C   0  0  0  0  0  0  0  0  0  0  0  0
    2.3918   -3.8637    0.0000 C   0  0  0  0  0  0  0  0  0  0  0  0
    3.7621   -4.4738    0.0000 C   0  0  0  0  0  0  0  0  0  0  0  0
    4.9756   -3.5921    0.0000 C   0  0  0  0  0  0  0  0  0  0  0  0
    1.1783   -4.7454    0.0000 N   0  0  0  0  0  0  0  0  0  0  0  0
  1  2  1  0
  2  3  1  0
  2  4  1  0
  4  5  1  0
  5  6  1  0
  6  7  1  0
  7  8  1  0
  8  9  1  0
  9 10  1  0
 10 11  2  0
 11 12  1  0
 12 13  2  0
 13 14  1  0
 14 15  2  0
  8 16  1  0
 16 17  1  0
 17 18  2  0
 17 19  1  0
 19 20  1  0
 20 21  1  0
 21 22  1  0
 22 23  1  0
 23 24  1  0
 24 25  1  0
 25 26  1  0
 26 27  1  0
  7 28  1  0
  5 29  1  0
 29 30  2  0
 29 31  2  0
 29 32  1  0
 32 33  2  0
 33 34  1  0
 34 35  2  0
 35 36  1  0
 36 37  2  0
 35 38  1  0
 15 10  1  0
 24 20  1  0
 27 23  1  0
 37 32  1  0
M  END
>  <Title>  (11) 
idAAAKgen0

$$$$

     RDKit          2D

 51 53  0  0  0  0  0  0  0  0999 V2000
    3.0000   -1.0981    0.0000 C   0  0  0  0  0  0  0  0  0  0  0  0
    3.0000   -2.5981    0.0000 C   0  0  0  0  0  0  0  0  0  0  0  0
    3.0000   -4.0981    0.0000 C   0  0  0  0  0  0  0  0  0  0  0  0
    4.5000   -2.5981    0.0000 C   0  0  0  0  0  0  0  0  0  0  0  0
    1.5000   -2.5981    0.0000 C   0  0  0  0  0  0  0  0  0  0  0  0
    0.7500   -3.8971    0.0000 C   0  0  0  0  0  0  0  0  0  0  0  0
    1.5000   -5.1962    0.0000 O   0  0  0  0  0  0  0  0  0  0  0  0
   -0.7500   -3.8971    0.0000 N   0  0  0  0  0  0  0  0  0  0  0  0
   -1.5000   -5.1962    0.0000 C   0  0  0  0  0  0  0  0  0  0  0  0
   -3.0000   -5.1962    0.0000 C   0  0  0  0  0  0  0  0  0  0  0  0
   -3.7500   -3.8971    0.0000 C   0  0  0  0  0  0  0  0  0  0  0  0
   -5.2500   -3.8971    0.0000 C   0  0  0  0  0  0  0  0  0  0  0  0
   -6.0000   -2.5981    0.0000 C   0  0  0  0  0  0  0  0  0  0  0  0
   -5.2500   -1.2990    0.0000 C   0  0  0  0  0  0  0  0  0  0  0  0
   -3.7500   -1.2990    0.0000 C   0  0  0  0  0  0  0  0  0  0  0  0
   -3.0000   -2.5981    0.0000 C   0  0  0  0  0  0  0  0  0  0  0  0
   -0.7500   -6.4952    0.0000 C   0  0  0  0  0  0  0  0  0  0  0  0
    0.7500   -6.4952    0.0000 C   0  0  0  0  0  0  0  0  0  0  0  0
    1.5000   -7.7942    0.0000 N   0  0  0  0  0  0  0  0  0  0  0  0
    0.7500   -9.0933    0.0000 C   0  0  0  0  0  0  0  0  0  0  0  0
    1.5000  -10.3923    0.0000 C   0  0  0  0  0  0  0  0  0  0  0  0
    0.7500  -11.6913    0.0000 C   0  0  0  0  0  0  0  0  0  0  0  0
    1.5000  -12.9904    0.0000 C   0  0  0  0  0  0  0  0  0  0  0  0
    3.0000  -12.9904    0.0000 C   0  0  0  0  0  0  0  0  0  0  0  0
    3.7500  -11.6913    0.0000 C   0  0  0  0  0  0  0  0  0  0  0  0
    3.0000  -10.3923    0.0000 C   0  0  0  0  0  0  0  0  0  0  0  0
    3.7500  -14.2894    0.0000 C   0  0  0  0  0  0  0  0  0  0  0  0
    3.0000  -15.5885    0.0000 C   0  0  0  0  0  0  0  0  0  0  0  0
    3.7500  -16.8875    0.0000 C   0  0  0  0  0  0  0  0  0  0  0  0
    5.2500  -16.8875    0.0000 C   0  0  0  0  0  0  0  0  0  0  0  0
    6.0000  -15.5885    0.0000 C   0  0  0  0  0  0  0  0  0  0  0  0
    5.2500  -14.2894    0.0000 N   0  0  0  0  0  0  0  0  0  0  0  0
    3.0000   -7.7942    0.0000 N   0  0  0  0  0  0  0  0  0  0  0  0
    3.7500   -6.4952    0.0000 C   0  0  0  0  0  0  0  0  0  0  0  0
    3.0000   -5.1962    0.0000 O   0  0  0  0  0  0  0  0  0  0  0  0
    5.2500   -6.4952    0.0000 C   0  0  0  0  0  0  0  0  0  0  0  0
    6.0000   -5.1962    0.0000 C   0  0  0  0  0  0  0  0  0  0  0  0
    7.2990   -5.9462    0.0000 C   0  0  0  0  0  0  0  0  0  0  0  0
    4.7010   -4.4462    0.0000 C   0  0  0  0  0  0  0  0  0  0  0  0
    6.7500   -3.8971    0.0000 C   0  0  0  0  0  0  0  0  0  0  0  0
    6.0000   -7.7942    0.0000 N   0  0  0  0  0  0  0  0  0  0  0  0
    7.5000   -7.7942    0.0000 C   0  0  0  0  0  0  0  0  0  0  0  0
    8.2500   -6.4952    0.0000 O   0  0  0  0  0  0  0  0  0  0  0  0
    8.2500   -9.0933    0.0000 O   0  0  0  0  0  0  0  0  0  0  0  0
    9.7500   -9.0933    0.0000 C   0  0  0  0  0  0  0  0  0  0  0  0
   -1.5000   -7.7942    0.0000 O   0  0  0  0  0  0  0  0  0  0  0  0
    0.7500   -1.2990    0.0000 N   0  0  0  0  0  0  0  0  0  0  0  0
    1.5000    0.0000    0.0000 C   0  0  0  0  0  0  0  0  0  0  0  0
    3.0000   -0.0000    0.0000 O   0  0  0  0  0  0  0  0  0  0  0  0
    0.7500    1.2990    0.0000 O   0  0  0  0  0  0  0  0  0  0  0  0
    1.5000    2.5981    0.0000 C   0  0  0  0  0  0  0  0  0  0  0  0
  1  2  1  0
  2  3  1  0
  2  4  1  0
  2  5  1  0
  5  6  1  0
  6  7  2  0
  6  8  1  0
  8  9  1  0
  9 10  1  0
 10 11  1  0
 11 12  2  0
 12 13  1  0
 13 14  2  0
 14 15  1  0
 15 16  2  0
  9 17  1  0
 17 18  1  0
 18 19  1  0
 19 20  1  0
 20 21  1  0
 21 22  2  0
 22 23  1  0
 23 24  2  0
 24 25  1  0
 25 26  2  0
 24 27  1  0
 27 28  2  0
 28 29  1  0
 29 30  2  0
 30 31  1  0
 31 32  2  0
 19 33  1  0
 33 34  1  0
 34 35  2  0
 34 36  1  0
 36 37  1  0
 37 38  1  0
 37 39  1  0
 37 40  1  0
 36 41  1  0
 41 42  1  0
 42 43  2  0
 42 44  1  0
 44 45  1  0
 17 46  1  0
  5 47  1  0
 47 48  1  0
 48 49  2  0
 48 50  1  0
 50 51  1  0
 16 11  1  0
 26 21  1  0
 32 27  1  0
M  END
>  <Title>  (12) 
idAAALgen0

$$$$
